36
	Energy: -1134386.3479883
C          3.40942       -2.06024        0.40885
C          3.57939       -0.61045        0.76719
N          2.34194       -0.01392        1.22879
O          4.56479       -2.68069        0.31508
O          2.34472       -2.59777        0.19625
C          2.25076        1.42463        0.99657
P          1.86289        1.82664       -0.73427
O          1.24591        3.23900       -0.73011
O          1.06718        0.71796       -1.32245
O          3.22972        2.00113       -1.50432
H          0.40133        3.31256       -0.14111
Ba        -0.08117       -1.27292       -0.13655
H          4.41668       -3.59707        0.03552
H          2.22303       -0.18992        2.22006
H          4.42076       -0.50716        1.46290
H          3.90594       -0.11560       -0.15655
H          1.40317        1.81202        1.56982
H          3.14405        1.98197        1.30927
C         -3.61817       -1.76719       -0.26068
O         -4.80381       -2.27631       -0.00677
O         -2.59403       -2.41475       -0.20917
C         -3.69089       -0.30093       -0.57433
N         -2.48142        0.18849       -1.21095
C         -2.19664        1.59872       -0.92775
P         -1.60245        1.88864        0.78304
O         -0.98768        0.60012        1.25539
O         -0.77016        3.12792        0.77273
O         -2.92125        2.13656        1.64387
H         -4.70576       -3.20779        0.24281
H         -3.82931        0.19977        0.39250
H         -4.60920       -0.09888       -1.13783
H         -2.56538        0.07120       -2.21475
H         -3.04867        2.26080       -1.13150
H         -1.37898        1.91135       -1.58302
H          3.45469        2.91026       -1.72877
H         -3.02347        3.05643        1.90813
