36
	Energy: -1137660.4087256
C         -3.11275        2.25115        0.33229
C         -3.39512        0.85815        0.82134
N         -2.19055        0.18282        1.26750
O         -4.20802        2.96389        0.21283
O         -2.01018        2.66927        0.04845
C         -2.20262       -1.26463        1.05765
P         -1.86999       -1.70808       -0.67647
O         -1.26925       -3.12513       -0.67653
O         -1.07523       -0.61556       -1.29829
O         -3.26448       -1.87168       -1.39414
H         -0.39059       -3.20860       -0.13543
Sr         0.07750        1.16239       -0.11437
H         -3.99021        3.83676       -0.14905
H         -2.03746        0.36377        2.25323
H         -4.19628        0.89436        1.56818
H         -3.82472        0.32643       -0.03712
H         -1.37540       -1.69826        1.62644
H         -3.12730       -1.75099        1.39353
C          3.32804        1.99673       -0.26514
O          4.46449        2.60956       -0.03005
O          2.24598        2.53317       -0.13999
C          3.52572        0.56268       -0.66259
N          2.33284       -0.00715       -1.26680
C          2.17078       -1.44405       -1.00682
P          1.63819       -1.80386        0.71332
O          1.00233       -0.54396        1.23336
O          0.83543       -3.06198        0.69510
O          2.98832       -2.03757        1.52415
H          4.28796        3.51322        0.27377
H          3.76278        0.02922        0.26677
H          4.42558        0.48005       -1.28210
H          2.37061        0.13481       -2.27036
H          3.07025       -2.02604       -1.24413
H          1.36725       -1.80956       -1.65139
H         -3.48104       -2.77043       -1.66419
H          3.11527       -2.95652        1.78092
